 MSC.Nastran input file created on March     03, 2018 at 17:54:40 by
$ Patran 2017.0.3
$ Direct Text Input for Nastran System Cell Section
$ Direct Text Input for File Management Section
$ Direct Text Input for Executive Control
$ Complex Eigenvalue Analysis, Direct Formulation, Database
SOL 107
CEND
$ Direct Text Input for Global Case Control Data
TITLE = MSC.Nastran job created on 03-Mar-18 at 17:47:03
ECHO = NONE
SUBCASE 1
   SUBTITLE=Default
   CMETHOD = 1
   SPC = 2
   RGYRO = 1
   VECTOR(SORT1,REAL)=ALL
   SPCFORCES(SORT1,REAL)=ALL
$ Direct Text Input for this Subcase
BEGIN BULK
$ Direct Text Input for Bulk Data
PARAM    POST    0
PARAM   COUPMASS 1
PARAM   PRTMAXIM YES
EIGC     1       CLAN    MAX
         0.      0.                                      10
$ Rotor Dynamics data for RGYRO 1
ROTORG   3       1
ROTORG   3       2
ROTORG   3       3
ROTORG   3       4
ROTORG   3       5
ROTORG   3       6
RSPINR   3       2       3       RPM    1.
         0.
RGYRO    1       ASYNC   3       RPM                    10000.
$ Elements and Element Properties for region : beam_prop
PBEAML   1       1               TUBE
        .1      .05
$ Pset: "beam_prop" will be imported as: "pbeaml.1"
CBEAM    1       1       1       2       0.     1.       0.
CBEAM    2       1       2       3       0.     1.       0.
CBEAM    3       1       3       4       0.     1.       0.
CBEAM    4       1       4       5       0.     1.       0.
CBEAM    5       1       5       6       0.     1.       0.
$ Referenced Material Records
$ Material Record : steel
$ Description of Material : Date: 03-Mar-18           Time: 17:37:33
MAT1     1      2.1+11          .3      7810.
$ Nodes of the Entire Model
GRID     1               0.      0.      0.
GRID*    2                              .100000001490116 0.
*        0.
GRID*    3                              .200000002980232 0.
*        0.
GRID*    4                              .300000011920929 0.
*        0.
GRID*    5                              .400000005960465 0.
*        0.
GRID     6              .5       0.      0.
$ Loads for Load Case : Default
SPCADD   2       1
$ Displacement Constraints of Load Set : bc
SPC1     1       123456  1
$ Referenced Coordinate Frames
ENDDATA af107e3c
